/*--------------------------------*- C++ -*----------------------------------*\
  =========                 |
  \\      /  F ield         | OpenFOAM: The Open Source CFD Toolbox
   \\    /   O peration     | Website:  https://openfoam.org
    \\  /    A nd           | Version:  9
     \\/     M anipulation  |
\*---------------------------------------------------------------------------*/
FoamFile
{
    format      ascii;
    class       volScalarField;
    location    "0";
    object      psi;
}

dimensions [0 0 0 0 0 0 0];

internalField   uniform 0;

boundaryField
{
    // bottom { type zeroGradient; }
    // top    { type zeroGradient; }
    // left   { type zeroGradient; }
    // right  { type zeroGradient; }
    bottom { type symmetry; }
    top    { type symmetry; }
    left   { type symmetry; }
    right  { type symmetry; }
    // bottom { type fixedValue;value uniform 1; }
    // top    { type fixedValue;value uniform 1; }
    // left   { type fixedValue;value uniform 1; }
    // right  { type fixedValue;value uniform 1; }
    frontAndBack { type empty; }
}