/*--------------------------------*- C++ -*----------------------------------*\
  =========                 |
  \\      /  F ield         | OpenFOAM: The Open Source CFD Toolbox
   \\    /   O peration     | Website:  https://openfoam.org
    \\  /    A nd           | Version:  9
     \\/     M anipulation  |
\*---------------------------------------------------------------------------*/
FoamFile
{
    format      ascii;
    class       dictionary;
    location    "system";
    object      fvSchemes;
}

ddtSchemes      { default Euler; }
gradSchemes     { default Gauss linear; }
divSchemes      { default Gauss linear; div(phi_n,psi) Gauss linear; }
laplacianSchemes{ default none; }
interpolationSchemes { default linear; }
snGradSchemes   { default none; }