/*--------------------------------*- C++ -*----------------------------------*\
  =========                 |
  \\      /  F ield         | OpenFOAM: The Open Source CFD Toolbox
   \\    /   O peration     | Website:  https://openfoam.org
    \\  /    A nd           | Version:  9
     \\/     M anipulation  |
\*---------------------------------------------------------------------------*/
FoamFile
{
    format      ascii;
    class       polyBoundaryMesh;
    location    "constant/polyMesh";
    object      boundary;
}
// * * * * * * * * * * * * * * * * * * * * * * * * * * * * * * * * * * * * * //

5
(
    bottom
    {
        type            symmetry;
        inGroups        List<word> 1(symmetry);
        nFaces          300;
        startFace       179400;
    }
    top
    {
        type            symmetry;
        inGroups        List<word> 1(symmetry);
        nFaces          300;
        startFace       179700;
    }
    left
    {
        type            symmetry;
        inGroups        List<word> 1(symmetry);
        nFaces          300;
        startFace       180000;
    }
    right
    {
        type            symmetry;
        inGroups        List<word> 1(symmetry);
        nFaces          300;
        startFace       180300;
    }
    frontAndBack
    {
        type            empty;
        inGroups        List<word> 1(empty);
        nFaces          180000;
        startFace       180600;
    }
)

// ************************************************************************* //
